71
NAJ-buckle.pdb
O         11.18200        0.17100        0.12700
C         10.75100        0.57400       -0.93600
N         11.49800        1.40000       -1.69700
H         11.14400        1.73900       -2.58400
H         12.41900        1.68800       -1.38700
C          9.41000        0.15800       -1.39600
C          8.62900       -0.70200       -0.62200
H          9.01100       -1.07100        0.32100
C          8.90200        0.61400       -2.62000
H          9.48200        1.27800       -3.24900
C          7.64100        0.19500       -3.00400
H          7.21700        0.52900       -3.94300
C          6.92700       -0.65400       -2.17600
H          5.94000       -0.98400       -2.47500
N          7.43100       -1.06800       -1.02800
C          6.63600       -1.96500       -0.18600
H          6.95200       -1.88400        0.86300
O          5.23000       -1.66100       -0.31300
C          6.77100       -3.42300       -0.67700
H          7.51300       -3.96600       -0.07500
O          7.12900       -3.45400       -2.06000
H          7.14900       -4.37100       -2.36700
C          5.36200       -4.02100       -0.46900
H          5.40000       -4.86200        0.23700
O          4.80600       -4.43900       -1.71700
H          5.33000       -5.17000       -2.07400
C          4.54300       -2.85300        0.12300
H          4.53400       -2.91000        1.22100
C          3.11400       -2.87400       -0.42400
H          2.64600       -3.83100       -0.18300
H          3.13700       -2.74400       -1.50800
O          2.36200       -1.81200        0.16900
P          0.87700       -1.89300       -0.44700
O          0.93000       -1.61200       -1.90300
O          0.32300       -3.25100       -0.22600
O         -0.06400       -0.80500        0.27500
P          0.80800        0.54200        0.41800
O          1.80000        0.37700        1.50700
O          1.51300        0.81000       -0.85800
O         -0.16700        1.77800        0.76200
C          0.64200        2.95500        0.75800
H          1.09700        3.08000       -0.22700
H          1.42800        2.85800        1.51000
C         -0.22800        4.17200        1.08000
H         -1.07700        4.21800        0.38500
C          0.61300        5.46100        0.96500
H          0.41900        5.97100        0.01100
O          2.00500        5.17600        1.11500
H          2.50400        6.00400        1.13000
C          0.09000        6.30400        2.16000
H         -0.82700        6.84700        1.89000
O          1.09500        7.20000        2.63800
H          1.26000        7.88300        1.97500
C         -0.20600        5.19100        3.19700
H          0.71500        4.90600        3.72400
O         -0.70500        4.08400        2.42700
N         -1.22100        5.64300        4.15200
C         -0.98900        6.32500        5.32100
C         -2.25100        6.54500        5.89800
N         -3.17000        5.98900        5.07300
C         -2.56800        5.45900        4.04700
H         -3.06300        4.94900        3.23100
N          0.09300        6.78400        5.94000
C         -0.01000        7.42700        7.08400
H          0.89300        7.78500        7.56500
N         -1.17300        7.65400        7.66600
H         -1.20000        8.16800        8.57000
C         -2.31000        7.23600        7.11900
N         -3.52400        7.47700        7.73900
H         -3.56200        7.97800        8.62100
H         -4.39100        7.15600        7.31800
