44
CENTROIDS
 C		-22.9365	7.71554	83.3646
 C		-24.0828	20.4477	87.8497
 C		-21.2068	17.2156	87.0311
 C		-23.8266	15.1661	87.4507
 C		-19.9845	17.6973	87.5555
 C		-25.4892	14.0962	87.4249
 C		-21.4045	7.01824	80.1761
 C		-22.5151	7.05862	79.6155
 C		-23.0694	19.1952	87.2182
 C		-23.0089	7.54899	85.0416
 C		-22.8187	9.55882	84.0506
 C		-23.2284	22.834	85.3018
 C		-22.5964	7.37474	80.9365
 C		-23.8154	13.0157	88.0439
 C		-22.1187	16.1877	85.0625
 C		-21.44	6.6897	78.9701
 C		-24.9182	7.78469	85.8179
 C		-23.2796	21.6577	86.262
 C		-21.2341	7.21631	81.5542
 C		-18.3373	6.57792	79.7759
 C		-22.4607	20.2797	85.8625
 C		-23.6829	23.8807	85.8941
 C		-22.335	15.898	85.7534
 C		-22.5813	8.45406	83.5521
 C		-22.6611	17.3491	85.3504
 C		-19.792	16.1761	85.5273
 C		-20.3926	6.70849	79.3843
 C		-22.7219	11.0521	88.4107
 C		-23.8428	9.31046	85.0981
 C		-23.4462	10.8145	85.7417
 C		-20.8776	15.9269	86.3324
 C		-23.1556	5.9538	85.0622
 C		-20.245	7.59832	83.3666
 C		-19.5691	7.32977	82.3234
 C		-22.8231	22.6908	83.9974
 C		-19.2733	6.58027	79.4205
 C		-24.6533	11.2439	88.8413
 C		-24.1923	11.1211	87.0891
 C		-24.6486	14.8878	89.1816
 C		-23.4722	8.9846	83.831
 C		-21.8412	18.3899	86.0991
 C		-19.9567	6.96186	80.7969
 C		-23.3798	15.0371	85.9626
 C		-21.646	7.59319	82.8023
