25
P25_fit_1.pdb
O          3.73100       58.73300      118.72800
P          3.28100       57.66400      117.97500
O          3.55900       57.81700      116.62500
O          2.00200       57.28400      118.30800
O          4.14200       56.46300      118.44200
P          5.02600       56.12400      119.66400
O          5.89400       57.12600      119.96000
O          5.74100       55.01100      119.40900
O          4.03800       55.94900      120.84900
C          2.99600       54.91800      120.97400
H          2.95700       54.32000      120.07000
H          2.05300       55.44800      120.97600
C          2.90000       53.90900      122.16300
H          2.08300       53.24000      121.89700
H          2.48300       54.48600      122.98800
C          4.11000       53.01200      122.80600
H          4.41300       53.42200      123.75700
H          5.00900       53.05200      122.19700
C          3.81200       51.63100      123.11800
H          2.75300       51.51600      123.18400
H          4.23900       51.44000      124.07100
C          4.40800       50.69400      122.10600
H          4.76700       51.23200      121.28200
H          5.20300       50.12700      122.50300
H          3.67800       50.03400      121.75100
