25
../P25.pdb
O          5.20200       -1.82700       -1.06400
P          4.27200       -2.80700       -1.74600
O          3.86700       -3.88400       -0.76400
O          4.98200       -3.43900       -2.92300
O          2.96100       -2.03100       -2.26500
P          2.05400       -1.73200       -0.96800
O          2.91100       -1.21800        0.12700
O          1.39000       -2.98300       -0.53000
O          0.93700       -0.63200       -1.33600
C          0.24500       -0.32500       -0.12300
H          0.95200        0.06900        0.60900
H         -0.21800       -1.23200        0.27100
C         -0.83600        0.72000       -0.40500
H         -1.54200        0.32500       -1.13800
H         -0.37100        1.62600       -0.80100
C         -1.57600        1.05000        0.89300
H         -0.86900        1.44500        1.62500
H         -2.03900        0.14300        1.28800
C         -2.65800        2.09500        0.61200
H         -3.36400        1.69900       -0.12100
H         -2.19400        3.00100        0.21600
C         -3.39800        2.42400        1.90900
H         -3.85000        1.54600        2.29500
H         -2.71500        2.80900        2.62200
H         -4.14900        3.14800        1.71700
