71
libcheck_NAJ.pdb
O          0.00000        0.00000        0.00000
C         -0.43100        0.40300       -1.06300
N          0.31600        1.22900       -1.82400
H         -0.03800        1.56800       -2.71100
H          1.23700        1.51700       -1.51400
C         -1.77200       -0.01300       -1.52300
C         -2.55300       -0.87300       -0.74900
H         -2.17000       -1.24300        0.19400
C         -2.28000        0.44300       -2.74700
H         -1.70000        1.10700       -3.37600
C         -3.54100        0.02400       -3.13100
H         -3.96600        0.35700       -4.07000
C         -4.25500       -0.82500       -2.30300
H         -5.24200       -1.15500       -2.60100
N         -3.75100       -1.23900       -1.15500
C         -4.54600       -2.13600       -0.31300
H         -4.23000       -2.05500        0.73700
O         -5.95200       -1.83200       -0.44000
C         -4.41100       -3.59400       -0.80400
H         -3.66900       -4.13700       -0.20100
O         -4.05300       -3.62500       -2.18700
H         -4.03300       -4.54200       -2.49300
C         -5.82000       -4.19200       -0.59600
H         -5.78200       -5.03300        0.11000
O         -6.37600       -4.61000       -1.84400
H         -5.85200       -5.34000       -2.20100
C         -6.63900       -3.02400       -0.00400
H         -6.64800       -3.08100        1.09300
C         -8.06800       -3.04500       -0.55100
H         -8.53600       -4.00200       -0.31100
H         -8.04500       -2.91500       -1.63500
O         -8.82000       -1.98300        0.04200
P        -10.30500       -2.06400       -0.57400
O        -10.25200       -1.78300       -2.03000
O        -10.85900       -3.42200       -0.35300
O        -11.24600       -0.97600        0.14800
P        -12.76800       -1.44100       -0.09800
O        -13.15600       -1.14800       -1.49800
O        -12.88500       -2.89800        0.15300
O        -13.74200       -0.64400        0.90700
C        -15.05300       -1.18200        0.72600
H        -15.04300       -2.24900        0.95900
H        -15.36400       -1.04000       -0.31100
C        -16.03200       -0.46400        1.65700
H        -15.67100       -0.52000        2.69300
C        -17.42700       -1.11500        1.55200
H        -17.60900       -1.78900        2.40000
O        -17.57300       -1.80800        0.31100
H        -18.48100       -2.13000        0.22700
C        -18.37200        0.11600        1.61200
H        -18.56200        0.41800        2.65100
O        -19.59500       -0.13800        0.91900
H        -20.10600       -0.80100        1.40200
C        -17.51900        1.17700        0.87100
H        -17.63400        1.06800       -0.21700
O        -16.16200        0.90600        1.26000
N        -17.90800        2.52500        1.29100
C        -18.89900        3.29500        0.73400
C        -18.91000        4.49700        1.46000
N        -17.93800        4.40600        2.39900
C        -17.34900        3.24900        2.30200
H        -16.53500        2.91100        2.93200
N        -19.77200        3.12900       -0.25400
C        -20.63100        4.07900       -0.55700
H        -21.32700        3.91300       -1.37000
N        -20.67600        5.22700        0.09400
H        -21.37500        5.94500       -0.18500
C        -19.84500        5.48200        1.09900
N        -19.89900        6.68900        1.77400
H        -20.57700        7.39800        1.51000
H        -19.26200        6.88000        2.54100
