36
monomer-3GP.pdb
O         -0.19100        0.19200        0.45700
C          0.72100        1.01300        0.36400
C          2.04600        0.58700        0.33500
C          3.07000        1.52300        0.23000
N          2.78100        2.84900        0.15600
C          1.46500        3.28200        0.18500
N          1.18900        4.58100        0.11300
H          0.29500        4.88800       -0.25800
H          1.83200        5.25800        0.51000
N          0.43600        2.36400        0.28900
H         -0.55200        2.68900        0.31100
N          2.60700       -0.64000        0.39000
C          3.95100       -0.50700        0.32300
H          4.67000       -1.32500        0.34500
N          4.25500        0.82700        0.22400
C          5.60700        1.41600        0.12600
H          5.57400        2.30600       -0.50200
O          6.52800        0.48700       -0.41700
C          7.76800        0.51900        0.26800
H          8.52000        0.98300       -0.37000
C          8.23400       -0.89700        0.60400
H          9.02800       -0.85700        1.34900
H          8.63900       -1.36800       -0.29100
O          7.16200       -1.67000        1.09700
H          6.94100       -1.38400        2.00700
C          6.13100        1.81200        1.50000
H          5.59000        1.25500        2.26500
O          5.98900        3.19800        1.71400
H          5.44100        3.35100        2.51100
C          7.58700        1.38000        1.51300
H          7.77100        0.78300        2.40600
O          8.45500        2.49300        1.47900
P          9.98700        2.37600        1.96200
O         10.00300        1.89500        3.39300
O         10.73000        1.39400        1.08800
O         10.64900        3.73000        1.87600
